Circuit: * F:\CIRCUITS\DIGITALCURRENTSINKV2\HW\SIMULATION\ADA4522\FIRSTORDERSK_LOWPASS\FirstOrderSK_LowPass.asc

Direct Newton iteration failed to find .op point.  (Use ".option noopiter" to skip.)
Starting Gmin stepping
Gmin = 10
Gmin = 1.07374
Gmin = 0.115292
Gmin = 0.0123794
Gmin = 0.00132923
Gmin = 0.000142725
Gmin = 1.5325e-005
Gmin = 1.6455e-006
vernier = 0.5
vernier = 0.25
Gmin = 6.63374e-007
vernier = 0.333333
vernier = 0.444444
Gmin = 3.07923e-007
vernier = 0.592592
Gmin = 9.11308e-008
vernier = 0.790123
vernier = 1
Gmin = 1.3779e-008
Gmin = 1.47951e-009
Gmin = 1.58861e-010
Gmin = 1.70576e-011
Gmin = 1.83154e-012
Gmin = 1.9666e-013
Gmin = 0
Gmin stepping succeeded in finding the operating point.

.step c1=0
.step c1=1e-006
.step c1=2e-006
.step c1=3e-006
.step c1=4e-006
.step c1=5e-006
.step c1=6e-006
.step c1=7e-006
.step c1=8e-006
.step c1=9e-006
.step c1=1e-005

Date: Sun Jun 23 01:12:44 2019
Total elapsed time: 0.345 seconds.

tnom = 27
temp = 27
method = trap
totiter = 834
traniter = 0
tranpoints = 0
accept = 0
rejected = 0
matrix size = 23
fillins = 18
solver = Normal
Matrix Compiler1:      99 opcodes
Matrix Compiler2: off  [0.3]/0.4/0.4

