Circuit: * F:\CIRCUITS\DIGITALCURRENTSINKV2\HW\SIMULATION\LTC2058\NONINVERTINGX10GAIN\NonInvertingx1.5Gain.asc

Direct Newton iteration failed to find .op point.  (Use ".option noopiter" to skip.)
Starting Gmin stepping
Gmin = 10
Gmin = 1.07374
Gmin = 0.115292
Gmin = 0.0123794
Gmin = 0.00132923
Gmin = 0.000142725
Gmin = 1.5325e-005
Gmin = 1.6455e-006
Gmin = 1.76685e-007
vernier = 0.5
vernier = 0.25
vernier = 0.125
Gmin = 8.04112e-008
vernier = 0.0625
vernier = 0.03125
vernier = 0.015625
vernier = 0.0078125
Gmin = 8.0098e-008
vernier = 0.0104167
vernier = 0.0138889
Gmin = 7.81263e-008
vernier = 0.0185185
Gmin = 7.50309e-008
vernier = 0.0246913
vernier = 0.0329218
Gmin = 7.02295e-008
vernier = 0.0438957
vernier = 0.0585276
Gmin = 6.32545e-008
vernier = 0.0780367
Gmin = 5.34064e-008
vernier = 0.104049
vernier = 0.138732
Gmin = 4.05383e-008
vernier = 0.184976
vernier = 0.246634
Gmin = 2.62821e-008
vernier = 0.328846
Gmin = 1.31273e-008
vernier = 0.438461
vernier = 0.584614
Gmin = 4.31619e-009
vernier = 0.779486
vernier = 1
Gmin = 7.88016e-010
Gmin = 8.46126e-011
Gmin = 9.08521e-012
Gmin = 9.75517e-013
Gmin = 1.04745e-013
Gmin = 0
Gmin stepping succeeded in finding the operating point.


Date: Wed Jun 26 10:46:46 2019
Total elapsed time: 0.032 seconds.

tnom = 27
temp = 27
method = trap
totiter = 1418
traniter = 0
tranpoints = 0
accept = 0
rejected = 0
matrix size = 29
fillins = 18
solver = Normal
Matrix Compiler1:     108 opcodes
Matrix Compiler2: off  [0.3]/0.4/0.5

