Circuit: * F:\CIRCUITS\DIGITALCURRENTSINKV2\HW\SIMULATION\AD8421\UNITYGAIN\UnityGain.asc

WARNING: Less than two connections to node VOUT.  This node is used by V:U2:OSO.
Direct Newton iteration for .op point succeeded.
.step vin_source=0.1
.step vin_source=0.2
.step vin_source=0.3
.step vin_source=0.4
.step vin_source=0.5
.step vin_source=0.6
.step vin_source=0.7
.step vin_source=0.8
.step vin_source=0.9
.step vin_source=1
.step vin_source=1.1
.step vin_source=1.2
.step vin_source=1.3
.step vin_source=1.4
.step vin_source=1.5
.step vin_source=1.6
.step vin_source=1.7
.step vin_source=1.8
.step vin_source=1.9
.step vin_source=2
.step vin_source=2.1
.step vin_source=2.2
.step vin_source=2.3
.step vin_source=2.4
.step vin_source=2.5
.step vin_source=2.6
.step vin_source=2.7
.step vin_source=2.8
.step vin_source=2.9
.step vin_source=3
.step vin_source=3.1
.step vin_source=3.2
.step vin_source=3.3



Date: Thu Jun 27 03:13:41 2019
Total elapsed time: 2.108 seconds.

tnom = 27
temp = 27
method = modified trap
totiter = 2093
traniter = 2084
tranpoints = 1043
accept = 1043
rejected = 0
matrix size = 108
fillins = 12
solver = Normal
Matrix Compiler1: 3.72 KB object code size  1.0/0.5/[0.3]
Matrix Compiler2: 7.66 KB object code size  0.5/1.0/[0.3]

