Circuit: * F:\CIRCUITS\DIGITALCURRENTSINKV2\HW\SIMULATION\LTC2058\DIFFERENTIALUNITYGAIN\DRAFT3.ASC

Direct Newton iteration for .op point succeeded.
.step vin=0.2
.step vin=0.4
.step vin=0.6
.step vin=0.8
.step vin=1
.step vin=1.2
.step vin=1.4
.step vin=1.6
.step vin=1.8
.step vin=2
.step vin=2.2
.step vin=2.4
.step vin=2.6
.step vin=2.8
.step vin=3
.step vin=3.2
.step vin=3.3

Date: Fri Jun 28 01:21:41 2019
Total elapsed time: 0.719 seconds.

tnom = 27
temp = 27
method = modified trap
totiter = 2092
traniter = 2088
tranpoints = 1045
accept = 1045
rejected = 0
matrix size = 5
fillins = 0
solver = Normal
Matrix Compiler1: off  0.0/[0.0]/0.1
Matrix Compiler2: off  [0.0]/0.1/0.1

