Circuit: * F:\circuits\DigitalCurrentSinkV3\HW\Simulation\MOSFET_CurrentSense_NoSignalInversion_AD8421.asc

WARNING: Less than two connections to node VNEGOUT.  This node is used by V:U3:OSO.
WARNING: Less than two connections to node VPOSOUT.  This node is used by V:U4:OSO.
Direct Newton iteration failed to find .op point.  (Use ".option noopiter" to skip.)
Starting Gmin stepping
Gmin = 10
Gmin = 1.07374
vernier = 0.5
vernier = 0.666667
Gmin = 0.375229
vernier = 0.888888
vernier = 1
Gmin = 0.0567082
Gmin = 0.006089
vernier = 0.5
Gmin = 0.00102156
vernier = 0.25
vernier = 0.125
vernier = 0.0625
vernier = 0.03125
Gmin = 0.00099805
vernier = 0.015625
vernier = 0.0078125
vernier = 0.00390625
vernier = 0.00195313
Gmin = 0.00100047
vernier = 0.000976563
vernier = 0.000488281
Gmin = 0
Gmin stepping failed

Starting source stepping with srcstepmethod=0
Source Step = 3.0303%
Source Step = 33.3333%
Source Step = 63.6364%
Source Step = 93.9394%
Source stepping succeeded in finding the operating point.

.step vposin=0.5
.step vposin=1
.step vposin=1.5
.step vposin=2
.step vposin=2.5
.step vposin=3
.step vposin=3.5
.step vposin=4
.step vposin=4.5
.step vposin=5



Date: Fri Jul 19 08:17:43 2019
Total elapsed time: 7.751 seconds.

tnom = 27
temp = 27
method = modified trap
totiter = 3932
traniter = 2088
tranpoints = 1045
accept = 1045
rejected = 0
matrix size = 270
fillins = 221
solver = Normal
Matrix Compiler1: 14.52 KB object code size  4.6/2.0/[1.5]
Matrix Compiler2: 23.81 KB object code size  3.7/6.4/[2.0]

