Circuit: * F:\CIRCUITS\DIGITALCURRENTSINKV2\HW\SIMULATION\AD8421\UNITYGAINWITHINPUTFILTER\UnityGain.asc

Direct Newton iteration for .op point succeeded.
.step vin_source=0.1
.step vin_source=0.2
.step vin_source=0.3
.step vin_source=0.4
.step vin_source=0.5
.step vin_source=0.6
.step vin_source=0.7
.step vin_source=0.8
.step vin_source=0.9
.step vin_source=1
.step vin_source=1.1
.step vin_source=1.2
.step vin_source=1.3
.step vin_source=1.4
.step vin_source=1.5
.step vin_source=1.6
.step vin_source=1.7
.step vin_source=1.8
.step vin_source=1.9
.step vin_source=2
.step vin_source=2.1
.step vin_source=2.2
.step vin_source=2.3
.step vin_source=2.4
.step vin_source=2.5
.step vin_source=2.6
.step vin_source=2.7
.step vin_source=2.8
.step vin_source=2.9
.step vin_source=3
.step vin_source=3.1
.step vin_source=3.2
.step vin_source=3.3



Date: Thu Jun 27 02:52:03 2019
Total elapsed time: 0.858 seconds.

tnom = 27
temp = 27
method = trap
totiter = 9
traniter = 0
tranpoints = 0
accept = 0
rejected = 0
matrix size = 110
fillins = 27
solver = Normal
Matrix Compiler1:     262 opcodes
Matrix Compiler2: 8.16 KB object code size
