Circuit: * F:\CIRCUITS\DIGITALCURRENTSINKV2\HW\SIMULATION\ADA4522\SECONDORDERSK_LOWPASS\DRAFT14.ASC

Direct Newton iteration for .op point succeeded.
.step vin=1
.step vin=2
.step vin=3
.step vin=4
.step vin=5
.step vin=6
.step vin=7
.step vin=8
.step vin=9
.step vin=10
.step vin=11
.step vin=12

Date: Mon Jun 24 15:18:08 2019
Total elapsed time: 0.360 seconds.

tnom = 27
temp = 27
method = modified trap
totiter = 2098
traniter = 2088
tranpoints = 1045
accept = 1045
rejected = 0
matrix size = 8
fillins = 0
solver = Normal
Matrix Compiler1: 424 bytes object code size  0.2/0.1/[0.1]
Matrix Compiler2: 588 bytes object code size  0.1/0.1/[0.1]

