Circuit: * F:\CIRCUITS\DIGITALCURRENTSINKV2\HW\SIMULATION\ADA4522\SECONDORDERSK_LOWPASS\DRAFT13.ASC

WARNING: Less than two connections to node VIN.  This node is used by R2.
WARNING: Less than two connections to node N002.  This node is used by V4.
Direct Newton iteration failed to find .op point.  (Use ".option noopiter" to skip.)
Starting Gmin stepping
Gmin = 10
Gmin = 1.07374
vernier = 0.5
vernier = 0.25
vernier = 0.125
vernier = 0.0625
Gmin = 1.08884
vernier = 0.03125
vernier = 0.015625
Gmin = 1.03122
vernier = 0.0078125
vernier = 0.00390625
Gmin = 1.01823
vernier = 0.00520833
vernier = 0.00260417
Gmin = 1.01162
vernier = 0.00347222
vernier = 0.00173611
vernier = 0.00231481
vernier = 0.00115741
Gmin = 1.00877
vernier = 0.00154321
vernier = 0.000771604
Gmin = 1.00673
vernier = 0.00102881
vernier = 0.000514403
vernier = 0.00068587
Gmin = 1.00553
vernier = 0.000514403
vernier = 0.00068587
vernier = 0.000514402
Gmin = 1.00475
Gmin = 0
Gmin stepping failed

Starting source stepping with srcstepmethod=0
Source Step = 3.0303%
Source Step = 23.4848%
Source Step = 31.0606%
Source Step = 38.6364%
Source Step = 46.2121%
Source Step = 53.7879%
vernier = 0.375
Source Step = 62.1212%
Source Step = 73.4848%
Source Step = 84.8485%
Source Step = 96.2121%
Source stepping succeeded in finding the operating point.


Date: Sun Jun 23 19:44:07 2019
Total elapsed time: 0.549 seconds.

tnom = 27
temp = 27
method = modified trap
totiter = 23063
traniter = 16080
tranpoints = 8041
accept = 4838
rejected = 3203
matrix size = 19
fillins = 12
solver = Normal
Matrix Compiler1: 1.37 KB object code size  0.4/0.2/[0.1]
Matrix Compiler2: 1.95 KB object code size  0.2/0.3/[0.2]

