Circuit: * F:\CIRCUITS\DIGITALCURRENTSINKV2\HW\SIMULATION\LTC2058\FIRSTORDERSK_LOWPASS\FirstOrderSK_LowPass.asc

Direct Newton iteration failed to find .op point.  (Use ".option noopiter" to skip.)
Starting Gmin stepping
Gmin = 10
Gmin = 1.07374
Gmin = 0.115292
Gmin = 0.0123794
Gmin = 0.00132923
Gmin = 0.000142725
Gmin = 1.5325e-005
Gmin = 1.6455e-006
vernier = 0.5
vernier = 0.25
vernier = 0.125
Gmin = 1.10029e-006
vernier = 0.166667
vernier = 0.222222
Gmin = 7.43983e-007
vernier = 0.296296
Gmin = 3.97179e-007
vernier = 0.395061
vernier = 0.526748
Gmin = 1.44992e-007
vernier = 0.702331
vernier = 0.936441
Gmin = 3.07108e-008
vernier = 1
Gmin = 3.51537e-009
Gmin = 3.7746e-010
Gmin = 4.05295e-011
Gmin = 4.35182e-012
Gmin = 4.67273e-013
Gmin = 0
Gmin stepping succeeded in finding the operating point.

.step c1=0
.step c1=1e-006
.step c1=2e-006
.step c1=3e-006
.step c1=4e-006
.step c1=5e-006
.step c1=6e-006
.step c1=7e-006
.step c1=8e-006
.step c1=9e-006
.step c1=1e-005

Date: Wed Jun 26 10:50:10 2019
Total elapsed time: 0.312 seconds.

tnom = 27
temp = 27
method = trap
totiter = 836
traniter = 0
tranpoints = 0
accept = 0
rejected = 0
matrix size = 29
fillins = 18
solver = Normal
Matrix Compiler1:     108 opcodes
Matrix Compiler2: off  [0.3]/0.7/0.4

