Circuit: * F:\circuits\DigitalCurrentSinkV2\HW\Simulation\CurrentSenseResistor\CurrentSenseResistor_LowSide.ASC

Direct Newton iteration failed to find .op point.  (Use ".option noopiter" to skip.)
Starting Gmin stepping
Gmin = 10
Gmin = 1.07374
vernier = 0.5
vernier = 0.25
vernier = 0.125
Gmin = 1.02385
vernier = 0.0625
vernier = 0.03125
vernier = 0.015625
vernier = 0.0078125
Gmin = 1.03347
vernier = 0.0104167
vernier = 0.00520833
vernier = 0.00260417
Gmin = 1.0261
vernier = 0.00347222
vernier = 0.00173611
vernier = 0.000868055
Gmin = 1.02321
vernier = 0.00115741
vernier = 0.00154321
Gmin = 1.01986
vernier = 0.000771604
vernier = 0.000578703
vernier = 0.000771604
Gmin = 1.01873
vernier = 0.00102881
vernier = 0.000514403
Gmin = 0
Gmin stepping failed

Starting source stepping with srcstepmethod=0
Source Step = 3.0303%
Source Step = 19.8864%
vernier = 0.015625
Source Step = 19.7206%
Source Step = 19.7502%
Source Step = 19.7798%
Source Step = 19.8094%
Source Step = 19.839%
vernier = 0.00146484
Source Step = 19.879%
Source Step = 19.9234%
Source Step = 19.9677%
Source Step = 20.0121%
Source Step = 20.0565%
vernier = 0.00219727
Source Step = 20.1142%
Source Step = 20.1808%
Source Step = 20.2474%
Source Step = 20.314%
Source Step = 20.3806%
vernier = 0.0032959
Source Step = 20.4638%
Source Step = 20.5637%
Source Step = 20.6635%
Source Step = 20.7634%
Source Step = 20.8633%
vernier = 0.00494385
Source Step = 20.9831%
Source Step = 21.133%
Source Step = 21.2828%
Source Step = 21.4326%
Source Step = 21.5824%
vernier = 0.00741577
Source Step = 21.7547%
Source Step = 21.9794%
Source Step = 22.2041%
Source Step = 22.4288%
Source Step = 22.6536%
vernier = 0.0111237
Source Step = 22.9008%
Source Step = 23.2378%
Source Step = 23.5749%
Source Step = 23.912%
Source Step = 24.2491%
vernier = 0.0166855
Source Step = 24.603%
Source Step = 25.1086%
Source Step = 25.6143%
Source Step = 26.1199%
Source Step = 26.6255%
Source Step = 27.1311%
vernier = 0.0250282
Source Step = 27.8896%
Source Step = 28.648%
Source Step = 29.4064%
Source Step = 30.1648%
Source Step = 30.9233%
vernier = 0.0375423
Source Step = 32.023%
Source Step = 33.1606%
Source Step = 34.2983%
Source Step = 35.4359%
Source Step = 36.5736%
vernier = 0.0563135
Source Step = 38.1663%
Source Step = 39.8728%
Source Step = 41.5792%
Source Step = 43.2857%
Source Step = 44.9922%
vernier = 0.0844703
Source Step = 47.2959%
Source Step = 49.8556%
Source Step = 52.4153%
Source Step = 54.975%
Source Step = 57.5347%
vernier = 0.126705
Source Step = 60.8623%
Source Step = 64.7019%
Source Step = 68.5415%
Source Step = 72.381%
Source Step = 76.2206%
vernier = 0.190058
Source Step = 81.02%
Source Step = 86.7794%
Source Step = 92.5387%
Source Step = 98.298%
Source stepping succeeded in finding the operating point.

.step vin=0
.step vin=0.5
.step vin=1
.step vin=1.5
.step vin=2
.step vin=2.5
.step vin=3
.step vin=3.5
.step vin=4
.step vin=4.5
.step vin=5



Date: Fri Jun 28 02:51:03 2019
Total elapsed time: 32.491 seconds.

tnom = 27
temp = 27
method = modified trap
totiter = 9376
traniter = 2092
tranpoints = 1047
accept = 1047
rejected = 0
matrix size = 266
fillins = 597
solver = Normal
Matrix Compiler1: 27.67 KB object code size  8.4/3.0/[1.8]
Matrix Compiler2: 30.56 KB object code size  4.4/6.1/[1.9]

