Circuit: * F:\CIRCUITS\DIGITALCURRENTSINKV2\HW\SIMULATION\CURRENTSENSERESISTOR\DRAFT2.ASC

WARNING: Less than two connections to node N004.  This node is used by Q1.
Direct Newton iteration for .op point succeeded.

Date: Fri Jul 05 18:46:04 2019
Total elapsed time: 0.068 seconds.

tnom = 27
temp = 27
method = modified trap
totiter = 9131
traniter = 9103
tranpoints = 4138
accept = 2803
rejected = 1335
matrix size = 11
fillins = 0
solver = Normal
Matrix Compiler1: 592 bytes object code size  0.2/0.1/[0.1]
Matrix Compiler2: 801 bytes object code size  0.1/0.1/[0.1]

