Circuit: * F:\CIRCUITS\DIGITALCURRENTSINKV2\HW\SIMULATION\CURRENTSENSERESISTOR\DRAFT1.ASC

Direct Newton iteration for .op point succeeded.

Date: Wed Jul 03 01:16:16 2019
Total elapsed time: 0.065 seconds.

tnom = 27
temp = 27
method = modified trap
totiter = 2098
traniter = 2088
tranpoints = 1045
accept = 1045
rejected = 0
matrix size = 3
fillins = 0
solver = Normal
Matrix Compiler1: 86 bytes object code size  0.0/0.0/[0.0]
Matrix Compiler2:      15 opcodes  0.0/[0.0]/0.0

