Circuit: * F:\circuits\DigitalCurrentSinkV2\HW\Simulation\LTC2058\2ndOrderSK_LowPassWithSeperateGainStage\2ndOrderSK_LPFWithSeperateGainStage.asc

Direct Newton iteration failed to find .op point.  (Use ".option noopiter" to skip.)
Starting Gmin stepping
Gmin = 10
Gmin = 1.07374
Gmin = 0.115292
Gmin = 0.0123794
Gmin = 0.00132923
Gmin = 0.000142725
Gmin = 1.5325e-005
Gmin = 1.6455e-006
Gmin = 1.76685e-007
vernier = 0.5
vernier = 0.25
vernier = 0.125
Gmin = 9.46014e-008
vernier = 0.0625
vernier = 0.03125
vernier = 0.015625
vernier = 0.0078125
vernier = 0.00390625
Gmin = 9.29643e-008
vernier = 0.00520833
vernier = 0.00694444
Gmin = 9.18122e-008
vernier = 0.00347222
vernier = 0.00173611
vernier = 0.000868055
vernier = 0.000434028
Gmin = 9.14645e-008
vernier = 0.000578703
vernier = 0.000771604
Gmin = 9.13301e-008
vernier = 0.00102881
Gmin = 9.11189e-008
vernier = 0.00137174
vernier = 0.00182899
Gmin = 9.07655e-008
vernier = 0.00243865
vernier = 0.00325153
Gmin = 9.02049e-008
vernier = 0.00433537
Gmin = 8.93297e-008
vernier = 0.00578049
vernier = 0.00770732
Gmin = 8.78797e-008
vernier = 0.0102764
vernier = 0.0137019
Gmin = 8.56171e-008
vernier = 0.0182692
Gmin = 8.21762e-008
vernier = 0.0243589
vernier = 0.0121795
vernier = 0.00608973
vernier = 0.00304487
vernier = 0.00152243
vernier = 0.000761216
vernier = 0.000570912
Gmin = 8.0693e-008
vernier = 0.000428184
Gmin = 0
Gmin stepping failed

Starting source stepping with srcstepmethod=0
Source Step = 3.0303%
Source Step = 19.8864%
vernier = 0.015625
Source Step = 19.7206%
Source Step = 19.7502%
Source Step = 19.7798%
Source Step = 19.8094%
Source Step = 19.839%
vernier = 0.00146484
Source Step = 19.879%
Source Step = 19.9234%
Source Step = 19.9677%
Source Step = 20.0121%
Source Step = 20.0565%
vernier = 0.00219727
Source Step = 20.1142%
Source Step = 20.1808%
Source Step = 20.2474%
Source Step = 20.314%
Source Step = 20.3806%
vernier = 0.0032959
Source Step = 20.4638%
Source Step = 20.5637%
Source Step = 20.6635%
Source Step = 20.7634%
Source Step = 20.8633%
vernier = 0.00494385
Source Step = 20.9831%
Source Step = 21.133%
Source Step = 21.2828%
Source Step = 21.4326%
Source Step = 21.5824%
vernier = 0.00741577
Source Step = 21.7547%
Source Step = 21.9794%
Source Step = 22.2041%
Source Step = 22.4288%
Source Step = 22.6536%
vernier = 0.0111237
Source Step = 22.9008%
Source Step = 23.2378%
Source Step = 23.5749%
Source Step = 23.912%
Source Step = 24.2491%
vernier = 0.0166855
Source Step = 24.603%
Source Step = 25.1086%
Source Step = 25.6143%
Source Step = 26.1199%
Source Step = 26.6255%
Source Step = 27.1311%
vernier = 0.0250282
Source Step = 27.8896%
Source Step = 28.648%
Source Step = 29.4064%
Source Step = 30.1648%
Source Step = 30.9233%
vernier = 0.0375423
Source Step = 32.023%
Source Step = 33.1606%
Source Step = 34.2983%
Source Step = 35.4359%
Source Step = 36.5736%
vernier = 0.0563135
Source Step = 38.1663%
Source Step = 39.8728%
Source Step = 41.5792%
Source Step = 43.2857%
Source Step = 44.9922%
vernier = 0.0844703
Source Step = 47.2959%
Source Step = 49.8556%
Source Step = 52.4153%
Source Step = 54.975%
Source Step = 57.5347%
vernier = 0.126705
Source Step = 60.8623%
Source Step = 64.7019%
Source Step = 68.5415%
Source Step = 72.381%
Source Step = 76.2206%
vernier = 0.190058
Source Step = 81.02%
Source Step = 86.7794%
Source Step = 92.5387%
Source Step = 98.298%
Source stepping succeeded in finding the operating point.


Date: Wed Jun 26 13:32:29 2019
Total elapsed time: 0.251 seconds.

tnom = 27
temp = 27
method = trap
totiter = 5456
traniter = 0
tranpoints = 0
accept = 0
rejected = 0
matrix size = 53
fillins = 177
solver = Normal
Matrix Compiler1:     623 opcodes
Matrix Compiler2: off  [0.5]/0.8/0.8

